Circuit: * D:\OneDrive\Projetos\mahaudio\Sims\ES9038 Out\es9038OriginalOut.asc

Direct Newton iteration for .op point succeeded.
N-Period=10
Fourier components of V(plus,minus)
DC component:-2.40922e-006

Harmonic	Frequency	 Fourier 	Normalized	 Phase  	Normalized
 Number 	  [Hz]   	Component	 Component	[degree]	Phase [deg]
    1   	1.000e+03	2.288e+00	1.000e+00	  179.54°	    0.00°
    2   	2.000e+03	4.834e-06	2.113e-06	  -90.89°	 -270.43°
    3   	3.000e+03	4.834e-06	2.113e-06	  -91.35°	 -270.89°
    4   	4.000e+03	4.833e-06	2.112e-06	  -91.80°	 -271.34°
    5   	5.000e+03	4.832e-06	2.112e-06	  -92.26°	 -271.79°
    6   	6.000e+03	4.830e-06	2.111e-06	  -92.71°	 -272.25°
    7   	7.000e+03	4.828e-06	2.110e-06	  -93.16°	 -272.70°
    8   	8.000e+03	4.826e-06	2.109e-06	  -93.61°	 -273.15°
    9   	9.000e+03	4.824e-06	2.108e-06	  -94.06°	 -273.60°
   10   	1.000e+04	4.822e-06	2.107e-06	  -94.51°	 -274.05°
   11   	1.100e+04	4.819e-06	2.106e-06	  -94.96°	 -274.50°
   12   	1.200e+04	4.816e-06	2.105e-06	  -95.41°	 -274.95°
   13   	1.300e+04	4.812e-06	2.103e-06	  -95.86°	 -275.40°
   14   	1.400e+04	4.809e-06	2.102e-06	  -96.31°	 -275.85°
   15   	1.500e+04	4.805e-06	2.100e-06	  -96.76°	 -276.30°
   16   	1.600e+04	4.801e-06	2.098e-06	  -97.21°	 -276.74°
   17   	1.700e+04	4.796e-06	2.096e-06	  -97.65°	 -277.19°
   18   	1.800e+04	4.792e-06	2.094e-06	  -98.10°	 -277.63°
   19   	1.900e+04	4.787e-06	2.092e-06	  -98.54°	 -278.08°
   20   	2.000e+04	4.782e-06	2.090e-06	  -98.99°	 -278.52°
Total Harmonic Distortion: 0.000917%(0.009292%)



Date: Sat Aug 31 22:24:52 2024
Total elapsed time: 0.670 seconds.

tnom = 27
temp = 27
method = modified trap
totiter = 20079
traniter = 20074
tranpoints = 10018
accept = 10018
rejected = 0
matrix size = 272
fillins = 338
solver = Normal
Thread vector: 19.8/9.6[7] 6.7/4.1[7] 3.7/2.0[7] 0.8/2.4[1]  2592/500
Matrix Compiler1: 33.25 KB object code size  9.0/4.7/[2.0]
Matrix Compiler2: 28.90 KB object code size  3.1/3.6/[1.3]

