Circuit: * D:\repos\mahaudio\mhd314\Simulations\ES9038 Out\es9038out.asc

Direct Newton iteration for .op point succeeded.
N-Period=10
Fourier components of V(plus,minus)
DC component:1.14058e-005

Harmonic	Frequency	 Fourier 	Normalized	 Phase  	Normalized
 Number 	  [Hz]   	Component	 Component	[degree]	Phase [deg]
    1   	1.000e+03	3.184e+00	1.000e+00	   -0.99°	    0.00°
    2   	2.000e+03	2.285e-05	7.176e-06	   88.68°	   89.68°
    3   	3.000e+03	2.284e-05	7.174e-06	   88.02°	   89.01°
    4   	4.000e+03	2.283e-05	7.171e-06	   87.36°	   88.35°
    5   	5.000e+03	2.282e-05	7.168e-06	   86.69°	   87.69°
    6   	6.000e+03	2.280e-05	7.163e-06	   86.03°	   87.03°
    7   	7.000e+03	2.279e-05	7.158e-06	   85.37°	   86.37°
    8   	8.000e+03	2.277e-05	7.151e-06	   84.72°	   85.71°
    9   	9.000e+03	2.275e-05	7.144e-06	   84.06°	   85.05°
   10   	1.000e+04	2.272e-05	7.136e-06	   83.40°	   84.39°
   11   	1.100e+04	2.269e-05	7.128e-06	   82.75°	   83.74°
   12   	1.200e+04	2.266e-05	7.118e-06	   82.09°	   83.09°
   13   	1.300e+04	2.263e-05	7.108e-06	   81.44°	   82.43°
   14   	1.400e+04	2.259e-05	7.097e-06	   80.79°	   81.78°
   15   	1.500e+04	2.256e-05	7.085e-06	   80.14°	   81.13°
   16   	1.600e+04	2.252e-05	7.073e-06	   79.49°	   80.49°
   17   	1.700e+04	2.247e-05	7.059e-06	   78.85°	   79.84°
   18   	1.800e+04	2.243e-05	7.045e-06	   78.20°	   79.20°
   19   	1.900e+04	2.238e-05	7.030e-06	   77.56°	   78.56°
   20   	2.000e+04	2.233e-05	7.015e-06	   76.92°	   77.92°
Total Harmonic Distortion: 0.003102%(0.025957%)



Date: Tue Oct 15 13:00:18 2024
Total elapsed time: 16.741 seconds.

tnom = 27
temp = 27
method = modified trap
totiter = 200338
traniter = 200333
tranpoints = 100044
accept = 100037
rejected = 7
matrix size = 685
fillins = 1281
solver = Normal
Thread vector: 52.6/19.0[16] 11.6/5.1[16] 12.6/5.3[16] 2.5/1.8[5]  2592/500
Matrix Compiler1: 130.29 KB object code size  40.2/20.5/[8.8]
Matrix Compiler2: 80.41 KB object code size  9.9/11.5/[4.1]

