Circuit: * D:\OneDrive\Projetos\mahaudio\Sims\ES9038 Out\es9038out.asc

Direct Newton iteration for .op point succeeded.
Note: .fourier statements are only valid with a .tran command.
      No Fourier analysis performed.


Date: Fri Aug 30 01:20:01 2024
Total elapsed time: 0.114 seconds.

tnom = 27
temp = 27
method = trap
totiter = 5
traniter = 0
tranpoints = 0
accept = 0
rejected = 0
matrix size = 685
fillins = 1081
solver = Normal
Matrix Compiler1:    6053 opcodes
Matrix Compiler2: 76.83 KB object code size
